Metadata-Version: 1.0
Name: flopy
Version: 2.2.349
Summary: FloPy is a Python package to create, run, and post-process MODFLOW-based models.
Home-page: https://code.google.com/p/flopy/
Author: Mark Bakker, Vincent Post, Chris Langevin, Joe Hughes, Jeremy White, Alain Frances, and Jeffrey Starn
Author-email: mark.bakker@tudelft.nl, vincent.post@flinders.edu.au, langevin@usgs.gov, jdhughes@usgs.gov, jwhite@usgs.gov, frances.alain@gmail.com
License: New BSD
Description: FloPy includes support for MODFLOW-2000, MODFLOW-2005, and MODFLOW-NWT. Other supported MODFLOW-based models include MT3D and SEAWAT.
Platform: Windows
Platform: Mac OS-X
