*==============================================================================
* Predictive Technology Model
* BPTM 45nm
*==============================================================================
.model nmos nmos level=54
+ version=4.0               binunit=1                 paramchk=1               
+ capmod=2                  igcmod=1                  igbmod=1                 
+ diomod=1                  rdsmod=0                  rbodymod=1               
+ permod=1                  acnqsmod=0                trnqsmod=0               
+ toxe=__toxe_n             toxp=7e-010               toxm=1.4e-009            
+ epsrox=3.9                wint=__wint_n             lint=__lint_n
+ wl=0                      lln=1                     wln=1                    
+ ww=0                      lwn=1                     wwn=1                    
+ wwl=0                     xpart=0                   toxref=1.4e-009          
+ k1=0.35                   k2=0.05                   k3=0                     
+ w0=2.5e-006               dvt0=__dvt0_n             dvt1=0.52                
+ dvt0w=0                   dvt1w=0                   dvt2w=0                  
+ minv=0.05                 voffl=0                   dvtp0=1e-007             
+ lpe0=5.75e-008            lpeb=2.3e-010             xj=2e-008                
+ ndep=2.8e+018             nsd=1e+020                phin=0                   
+ cdscb=0                   cdscd=0                   cit=0                    
+ nfactor=1.2               eta0=0.15                 etab=0                   
+ u0=__u0_n                 ua=1.6e-010               ub=1.1e-017              
+ vsat=1.1e+005             a0=2                      ags=1e-020               
+ a2=1                      b0=-1e-020                b1=0                     
+ dwg=0                     dwb=0                     pclm=0.18                
+ pdiblc2=0.022             pdiblcb=-0.005            drout=0.45               
+ delta=0.01                pscbe1=8.14e+008          pscbe2=1e-007            
+ pdits=0.2                 pditsd=0.23               pditsl=2.3e+006          
+ rdsw=150                  rsw=150                   rdw=150                  
+ rdwmin=0                  rswmin=0                  prwg=0                   
+ wr=1                      alpha0=0.074              alpha1=0.005             
+ agidl=0.0002              bgidl=2.1e+009            cgidl=0.0002             
+ aigbacc=0.012             bigbacc=0.0028            cigbacc=0.002            
+ aigbinv=0.014             bigbinv=0.004             cigbinv=0.004            
+ nigbinv=3                 aigc=0.012                bigc=0.0028              
+ aigsd=0.012               bigsd=0.0028              cigsd=0.002              
+ poxedge=1                 pigcd=1                   ntox=1                   
+ xrcrg2=5                  cgso=6.238e-010           cgdo=6.238e-010          
+ cgdl=2.495e-10            cgsl=2.495e-10            ckappas=0.01             
+ acde=1                    moin=15                   noff=0.9                 
+ kt1=-0.37                 kt1l=0.0                  kt2=-0.042               
+ ua1=1e-009                ub1=-3.5e-019             uc1=0                    
+ at=53000                  fnoimod=1                 tnoimod=0                
+ jsws=1e-011               jswgs=1e-010              njs=1                    
+ ijthsrev=0.001            bvs=10                    xjbvs=1                  
+ jswd=1e-011               jswgd=1e-010              njd=1                    
+ ijthdrev=0.001            bvd=10                    xjbvd=1                  
+ cjs=0.0005                mjs=0.5                   pbsws=1                  
+ mjsws=0.33                pbswgs=1                  cjswgs=3e-010            
+ pbd=1                     cjd=0.0005                mjd=0.5                  
+ cjswd=5e-010              mjswd=0.33                pbswgd=1                 
+ mjswgd=0.33               tpb=0.005                 tcj=0.001                
+ tcjsw=0.001               tpbswg=0.005              tcjswg=0.001             
+ xtid=3                    dmcg=0e-006               dmci=0e-006              
+ dmcgt=0e-007              dwj=0.0e-008              xgw=0e-007               
+ rshg=0.4                  gbmin=1e-010              rbpb=5                   
+ rbps=15                   rbdb=15                   rbsb=15                  
.model pmos pmos level=54
+ version=4.0               binunit=1                 paramchk=1               
+ capmod=2                  igcmod=1                  igbmod=1                 
+ diomod=1                  rdsmod=0                  rbodymod=1               
+ permod=1                  acnqsmod=0                trnqsmod=0               
+ toxe=__toxe_p             toxp=7e-010               toxm=1.4e-009            
+ epsrox=3.9                wint=__wint_p             lint=__lint_p            
+ wl=0                      lln=1                     wln=1                    
+ ww=0                      lwn=1                     wwn=1                    
+ wwl=0                     xpart=0                   toxref=1.4e-009          
+ k1=0.39                   k2=0.05                   k3=0                     
+ w0=2.5e-006               dvt0=__dvt0_p             dvt1=0.635               
+ dvt0w=0                   dvt1w=0                   dvt2w=0                  
+ minv=0.05                 voffl=0                   dvtp0=0.5e-008           
+ lpe0=5.75e-008            lpeb=2.3e-010             xj=2e-008                
+ ndep=2.8e+018             nsd=1e+020                phin=0                   
+ cdscb=0                   cdscd=6.1e-008            cit=0                    
+ nfactor=2                 eta0=0.15                 etab=0                   
+ u0=__u0_p                 ua=1.6e-009               ub=8e-018                
+ vsat=90000                a0=1.2                    ags=1e-020               
+ a2=1                      b0=-1e-020                b1=0                     
+ dwg=0                     dwb=0                     pclm=0.55                
+ pdiblc2=0.0055            pdiblcb=3.4e-008          drout=0.56               
+ delta=0.014               pscbe1=8.14e+008          pscbe2=9.58e-007         
+ pdits=0.2                 pditsd=0.23               pditsl=2.3e+006          
+ rdsw=250                  rsw=160                   rdw=160                  
+ rdwmin=0                  rswmin=0                  prwg=3.22e-008           
+ wr=1                      alpha0=0.074              alpha1=0.005             
+ agidl=0.0002              bgidl=2.1e+009            cgidl=0.0002             
+ aigbacc=0.012             bigbacc=0.0028            cigbacc=0.002            
+ aigbinv=0.014             bigbinv=0.004             cigbinv=0.004            
+ nigbinv=3                 aigc=0.69                 bigc=0.0012              
+ aigsd=0.0087              bigsd=0.0012              cigsd=0.0008             
+ poxedge=1                 pigcd=1                   ntox=1                   
+ xrcrg2=5                  cgso=7.43e-010            cgdo=7.43e-010           
+ cgdl=1e-014               cgsl=1e-014               ckappas=0.5              
+ acde=1                    moin=15                   noff=0.9                 
+ kt1=-0.34                 kt1l=0                    kt2=-0.052               
+ ua1=-1e-009               ub1=2e-018                uc1=0                    
+ at=33000                  fnoimod=1                 tnoimod=0                
+ jsws=1e-011               jswgs=1e-010              njs=1                    
+ ijthsrev=0.001            bvs=10                    xjbvs=1                  
+ jswd=1e-011               jswgd=1e-010              njd=1                    
+ ijthdrev=0.001            bvd=10                    xjbvd=1                  
+ cjs=0.0005                mjs=0.5                   pbsws=1                  
+ mjsws=0.33                pbswgs=1                  cjswgs=3e-010            
+ pbd=1                     cjd=0.0005                mjd=0.5                  
+ cjswd=5e-010              mjswd=0.33                pbswgd=1                 
+ mjswgd=0.33               tpb=0.005                 tcj=0.001                
+ tcjsw=0.001               tpbswg=0.005              tcjswg=0.001             
+ xtid=3                    dmcg=5e-006               dmci=5e-006              
+ dmcgt=6e-007              dwj=0e-008                xgw=3e-007               
+ rshg=0.4                  gbmin=1e-010              rbpb=5                   
+ rbps=15                   rbdb=15                   rbsb=15                  
